
#======================================================================
# CRYSTAL DATA
#----------------------------------------------------------------------
data_VESTA_phase_1

_chemical_name_common                  'IRMOF-1'
_cell_length_a                         25.832001
_cell_length_b                         25.832001
_cell_length_c                         25.832001
_cell_angle_alpha                      90.000000
_cell_angle_beta                       90.000000
_cell_angle_gamma                      90.000000
_cell_volume                           17237.494197

_symmetry_cell_setting          cubic
_symmetry_space_group_name_Hall '-F 4 2 3'
_symmetry_space_group_name_H-M  'F m -3 m'
_symmetry_Int_Tables_number     225

loop_
_space_group_symop_operation_xyz
   'x, y, z'
   '-x, -y, -z'
   '-x, -y, z'
   'x, y, -z'
   '-x, y, -z'
   'x, -y, z'
   'x, -y, -z'
   '-x, y, z'
   'z, x, y'
   '-z, -x, -y'
   'z, -x, -y'
   '-z, x, y'
   '-z, -x, y'
   'z, x, -y'
   '-z, x, -y'
   'z, -x, y'
   'y, z, x'
   '-y, -z, -x'
   '-y, z, -x'
   'y, -z, x'
   'y, -z, -x'
   '-y, z, x'
   '-y, -z, x'
   'y, z, -x'
   'y, x, -z'
   '-y, -x, z'
   '-y, -x, -z'
   'y, x, z'
   'y, -x, z'
   '-y, x, -z'
   '-y, x, z'
   'y, -x, -z'
   'x, z, -y'
   '-x, -z, y'
   '-x, z, y'
   'x, -z, -y'
   '-x, -z, -y'
   'x, z, y'
   'x, -z, y'
   '-x, z, -y'
   'z, y, -x'
   '-z, -y, x'
   'z, -y, x'
   '-z, y, -x'
   '-z, y, x'
   'z, -y, -x'
   '-z, -y, -x'
   'z, y, x'
   'x, y+1/2, z+1/2'
   '-x, -y+1/2, -z+1/2'
   '-x, -y+1/2, z+1/2'
   'x, y+1/2, -z+1/2'
   '-x, y+1/2, -z+1/2'
   'x, -y+1/2, z+1/2'
   'x, -y+1/2, -z+1/2'
   '-x, y+1/2, z+1/2'
   'z, x+1/2, y+1/2'
   '-z, -x+1/2, -y+1/2'
   'z, -x+1/2, -y+1/2'
   '-z, x+1/2, y+1/2'
   '-z, -x+1/2, y+1/2'
   'z, x+1/2, -y+1/2'
   '-z, x+1/2, -y+1/2'
   'z, -x+1/2, y+1/2'
   'y, z+1/2, x+1/2'
   '-y, -z+1/2, -x+1/2'
   '-y, z+1/2, -x+1/2'
   'y, -z+1/2, x+1/2'
   'y, -z+1/2, -x+1/2'
   '-y, z+1/2, x+1/2'
   '-y, -z+1/2, x+1/2'
   'y, z+1/2, -x+1/2'
   'y, x+1/2, -z+1/2'
   '-y, -x+1/2, z+1/2'
   '-y, -x+1/2, -z+1/2'
   'y, x+1/2, z+1/2'
   'y, -x+1/2, z+1/2'
   '-y, x+1/2, -z+1/2'
   '-y, x+1/2, z+1/2'
   'y, -x+1/2, -z+1/2'
   'x, z+1/2, -y+1/2'
   '-x, -z+1/2, y+1/2'
   '-x, z+1/2, y+1/2'
   'x, -z+1/2, -y+1/2'
   '-x, -z+1/2, -y+1/2'
   'x, z+1/2, y+1/2'
   'x, -z+1/2, y+1/2'
   '-x, z+1/2, -y+1/2'
   'z, y+1/2, -x+1/2'
   '-z, -y+1/2, x+1/2'
   'z, -y+1/2, x+1/2'
   '-z, y+1/2, -x+1/2'
   '-z, y+1/2, x+1/2'
   'z, -y+1/2, -x+1/2'
   '-z, -y+1/2, -x+1/2'
   'z, y+1/2, x+1/2'
   'x+1/2, y, z+1/2'
   '-x+1/2, -y, -z+1/2'
   '-x+1/2, -y, z+1/2'
   'x+1/2, y, -z+1/2'
   '-x+1/2, y, -z+1/2'
   'x+1/2, -y, z+1/2'
   'x+1/2, -y, -z+1/2'
   '-x+1/2, y, z+1/2'
   'z+1/2, x, y+1/2'
   '-z+1/2, -x, -y+1/2'
   'z+1/2, -x, -y+1/2'
   '-z+1/2, x, y+1/2'
   '-z+1/2, -x, y+1/2'
   'z+1/2, x, -y+1/2'
   '-z+1/2, x, -y+1/2'
   'z+1/2, -x, y+1/2'
   'y+1/2, z, x+1/2'
   '-y+1/2, -z, -x+1/2'
   '-y+1/2, z, -x+1/2'
   'y+1/2, -z, x+1/2'
   'y+1/2, -z, -x+1/2'
   '-y+1/2, z, x+1/2'
   '-y+1/2, -z, x+1/2'
   'y+1/2, z, -x+1/2'
   'y+1/2, x, -z+1/2'
   '-y+1/2, -x, z+1/2'
   '-y+1/2, -x, -z+1/2'
   'y+1/2, x, z+1/2'
   'y+1/2, -x, z+1/2'
   '-y+1/2, x, -z+1/2'
   '-y+1/2, x, z+1/2'
   'y+1/2, -x, -z+1/2'
   'x+1/2, z, -y+1/2'
   '-x+1/2, -z, y+1/2'
   '-x+1/2, z, y+1/2'
   'x+1/2, -z, -y+1/2'
   '-x+1/2, -z, -y+1/2'
   'x+1/2, z, y+1/2'
   'x+1/2, -z, y+1/2'
   '-x+1/2, z, -y+1/2'
   'z+1/2, y, -x+1/2'
   '-z+1/2, -y, x+1/2'
   'z+1/2, -y, x+1/2'
   '-z+1/2, y, -x+1/2'
   '-z+1/2, y, x+1/2'
   'z+1/2, -y, -x+1/2'
   '-z+1/2, -y, -x+1/2'
   'z+1/2, y, x+1/2'
   'x+1/2, y+1/2, z'
   '-x+1/2, -y+1/2, -z'
   '-x+1/2, -y+1/2, z'
   'x+1/2, y+1/2, -z'
   '-x+1/2, y+1/2, -z'
   'x+1/2, -y+1/2, z'
   'x+1/2, -y+1/2, -z'
   '-x+1/2, y+1/2, z'
   'z+1/2, x+1/2, y'
   '-z+1/2, -x+1/2, -y'
   'z+1/2, -x+1/2, -y'
   '-z+1/2, x+1/2, y'
   '-z+1/2, -x+1/2, y'
   'z+1/2, x+1/2, -y'
   '-z+1/2, x+1/2, -y'
   'z+1/2, -x+1/2, y'
   'y+1/2, z+1/2, x'
   '-y+1/2, -z+1/2, -x'
   '-y+1/2, z+1/2, -x'
   'y+1/2, -z+1/2, x'
   'y+1/2, -z+1/2, -x'
   '-y+1/2, z+1/2, x'
   '-y+1/2, -z+1/2, x'
   'y+1/2, z+1/2, -x'
   'y+1/2, x+1/2, -z'
   '-y+1/2, -x+1/2, z'
   '-y+1/2, -x+1/2, -z'
   'y+1/2, x+1/2, z'
   'y+1/2, -x+1/2, z'
   '-y+1/2, x+1/2, -z'
   '-y+1/2, x+1/2, z'
   'y+1/2, -x+1/2, -z'
   'x+1/2, z+1/2, -y'
   '-x+1/2, -z+1/2, y'
   '-x+1/2, z+1/2, y'
   'x+1/2, -z+1/2, -y'
   '-x+1/2, -z+1/2, -y'
   'x+1/2, z+1/2, y'
   'x+1/2, -z+1/2, y'
   '-x+1/2, z+1/2, -y'
   'z+1/2, y+1/2, -x'
   '-z+1/2, -y+1/2, x'
   'z+1/2, -y+1/2, x'
   '-z+1/2, y+1/2, -x'
   '-z+1/2, y+1/2, x'
   'z+1/2, -y+1/2, -x'
   '-z+1/2, -y+1/2, -x'
   'z+1/2, y+1/2, x'

loop_
   _atom_site_label
   _atom_site_occupancy
   _atom_site_fract_x
   _atom_site_fract_y
   _atom_site_fract_z
   Zn1        1.0     0.793400     0.706600     0.706600
   O1         1.0     0.750000     0.750000     0.750000
   O2         1.0     0.781900     0.718100     0.634000
   C1         1.0     0.750000     0.750000     0.611300
   C2         1.0     0.750000     0.750000     0.553800
   C3         1.0     0.782900     0.717100     0.526900
   H1         1.0     0.804900     0.695100     0.544800
